Version 4
SHEET 1 880 680
WIRE 112 64 48 64
WIRE 240 64 192 64
WIRE 368 64 320 64
WIRE 400 64 368 64
WIRE -560 80 -624 80
WIRE -432 80 -480 80
WIRE -304 80 -352 80
WIRE -272 80 -304 80
WIRE 400 112 400 64
WIRE -272 128 -272 80
WIRE 48 128 48 64
WIRE -624 144 -624 80
WIRE 48 256 48 208
WIRE 224 256 48 256
WIRE 400 256 400 192
WIRE 400 256 224 256
WIRE -624 272 -624 224
WIRE -448 272 -624 272
WIRE -272 272 -272 208
WIRE -272 272 -448 272
WIRE 224 288 224 256
WIRE -448 304 -448 272
FLAG 224 288 0
FLAG 48 64 Vin
FLAG 368 64 Vout
FLAG -448 304 0
FLAG -624 80 VDCin
FLAG -304 80 VDCout
SYMBOL res 208 48 R90
WINDOW 0 0 56 VBottom 2
WINDOW 3 32 56 VTop 2
SYMATTR InstName RL
SYMATTR Value 10
SYMBOL ind 336 48 R90
WINDOW 0 5 56 VBottom 2
WINDOW 3 32 56 VTop 2
SYMATTR InstName L
SYMATTR Value 100µ
SYMBOL voltage 48 112 R0
WINDOW 0 -71 27 Left 2
WINDOW 3 -210 95 Left 2
WINDOW 123 0 0 Left 2
WINDOW 39 0 0 Left 2
SYMATTR InstName V1
SYMATTR Value SINE(0 5 1meg)
SYMBOL res 384 96 R0
SYMATTR InstName Rout
SYMATTR Value 100
SYMBOL res -464 64 R90
WINDOW 0 0 56 VBottom 2
WINDOW 3 32 56 VTop 2
SYMATTR InstName RDCL
SYMATTR Value 10
SYMBOL ind -336 64 R90
WINDOW 0 5 56 VBottom 2
WINDOW 3 32 56 VTop 2
SYMATTR InstName LDC
SYMATTR Value 100µ
SYMBOL voltage -624 128 R0
WINDOW 0 -71 27 Left 2
WINDOW 3 -58 95 Left 2
WINDOW 123 0 0 Left 2
WINDOW 39 0 0 Left 2
SYMATTR InstName V2
SYMATTR Value 5
SYMBOL res -288 112 R0
SYMATTR InstName RDCout
SYMATTR Value 100
TEXT 48 280 Left 2 !;tran 10u
TEXT -624 296 Left 2 !.tran 10u
